54
-1224.60785 frame 0   xyz file generated by terachem
   C      -1.6640000000   -0.1930000000   -0.0560000000
   C      -1.2460000000   -1.5480000000   -0.0180000000
   C       0.2090000000   -1.6000000000    0.2450000000
   C       0.6320000000   -0.1830000000    0.3850000000
   C      -0.5070000000    0.6510000000    0.2400000000
   C      -2.9770000000    0.1480000000   -0.3740000000
   C      -3.8870000000   -0.8670000000   -0.6750000000
   C      -3.4740000000   -2.2040000000   -0.6810000000
   C      -2.1580000000   -2.5500000000   -0.3670000000
   H      -3.2880000000    1.1890000000   -0.4010000000
   H      -4.9140000000   -0.6180000000   -0.9230000000
   H      -4.1830000000   -2.9850000000   -0.9380000000
   H      -1.8620000000   -3.5900000000   -0.4010000000
   C      -0.4190000000    2.0300000000    0.4220000000
   C       1.8480000000    0.3900000000    0.7730000000
   C       0.8120000000    2.5910000000    0.7680000000
   C       1.9320000000    1.7720000000    0.9510000000
   H       2.7260000000   -0.2230000000    0.9370000000
   H       2.8810000000    2.2150000000    1.2400000000
   H      -1.2980000000    2.6590000000    0.3120000000
   H       0.8970000000    3.6640000000    0.9110000000
   C       0.9740000000   -2.7310000000    0.4160000000
   C       0.4530000000   -4.0730000000    0.9730000000
   C       2.4200000000   -2.9020000000    0.2050000000
   C       1.7360000000   -4.7100000000    1.6040000000
   C       2.8700000000   -4.0240000000    0.9010000000
   H       1.7610000000   -5.7990000000    1.4870000000
   H       1.7540000000   -4.5090000000    2.6820000000
   C       4.2190000000   -4.4200000000    0.8960000000
   C       5.1250000000   -3.7070000000    0.1450000000
   C       3.3210000000   -2.2290000000   -0.6960000000
   C       4.7020000000   -2.6310000000   -0.6830000000
   H       4.5370000000   -5.2800000000    1.4790000000
   H       6.1750000000   -3.9870000000    0.1360000000
   C       5.6250000000   -1.9800000000   -1.5450000000
   C       2.9230000000   -1.2560000000   -1.6490000000
   C       3.8400000000   -0.6660000000   -2.4930000000
   C       5.2090000000   -1.0100000000   -2.4280000000
   H       1.8790000000   -0.9870000000   -1.7230000000
   H       3.5040000000    0.0670000000   -3.2200000000
   H       6.6680000000   -2.2820000000   -1.5080000000
   H       5.9220000000   -0.5260000000   -3.0870000000
   H       0.1480000000   -4.7160000000    0.1360000000
   C      -0.6730000000   -4.0500000000    1.9950000000
   C      -1.6450000000   -5.0580000000    1.9820000000
   C      -0.7090000000   -3.1060000000    3.0310000000
   C      -2.6330000000   -5.1200000000    2.9670000000
   C      -1.6940000000   -3.1630000000    4.0150000000
   H       0.0330000000   -2.3140000000    3.0630000000
   C      -2.6610000000   -4.1700000000    3.9870000000
   H      -1.7090000000   -2.4180000000    4.8040000000
   H      -3.4300000000   -4.2120000000    4.7530000000
   H      -1.6290000000   -5.8030000000    1.1890000000
   H      -3.3790000000   -5.9090000000    2.9330000000
